# Simple CIF generated by TEM_SIMU_MATLAB
_symmetry_space_group_name_H-M    'P 1'
_cell_length_a    5.468728
_cell_length_b    5.468728
_cell_length_c    5.468728
_cell_angle_alpha    90.000000
_cell_angle_beta    90.000000
_cell_angle_gamma    90.000000
_symmetry_Int_Tables_number    1
_cell_volume    163.553171
loop_
 _symmetry_equiv_pos_site_id
 _symmetry_equiv_pos_as_xyz
  1  'x, y, z'
loop_
 _atom_site_type_symbol
 _atom_site_label
 _atom_site_symmetry_multiplicity
 _atom_site_fract_x
 _atom_site_fract_y
 _atom_site_fract_z
 _atom_site_occupancy
  Si  Si0  1  0.000000  0.000000  0.500000  1.000000
  Si  Si1  1  0.000000  0.500000  1.000000  1.000000
  Si  Si2  1  0.250000  0.250000  0.750000  1.000000
  Si  Si3  1  0.250000  0.750000  0.250000  1.000000
  Si  Si4  1  0.500000  0.000000  1.000000  1.000000
  Si  Si5  1  0.500000  0.500000  0.500000  1.000000
  Si  Si6  1  0.750000  0.250000  0.250000  1.000000
  Si  Si7  1  0.750000  0.750000  0.750000  1.000000
