# Simple CIF generated by TEM_SIMU_MATLAB
_symmetry_space_group_name_H-M    'P 1'
_cell_length_a    4.058583
_cell_length_b    4.058583
_cell_length_c    19.873402
_cell_angle_alpha    90.000000
_cell_angle_beta    90.000000
_cell_angle_gamma    120.000000
_symmetry_Int_Tables_number    1
_cell_volume    283.499152
loop_
 _symmetry_equiv_pos_site_id
 _symmetry_equiv_pos_as_xyz
  1  'x, y, z'
loop_
 _atom_site_type_symbol
 _atom_site_label
 _atom_site_symmetry_multiplicity
 _atom_site_fract_x
 _atom_site_fract_y
 _atom_site_fract_z
 _atom_site_occupancy
  Al  Al0  1  0.000000  0.000000  0.999885  1.000000
  Al  Al1  1  0.333333  0.666667  0.666552  1.000000
  Al  Al2  1  0.666667  0.333333  0.333218  1.000000
  Ga  Ga3  1  0.000000  0.000000  0.500067  1.000000
  Ga  Ga4  1  0.333333  0.666667  0.166734  1.000000
  Ga  Ga5  1  0.666667  0.333333  0.833400  1.000000
  As  As6  1  0.000000  0.000000  0.124797  1.000000
  As  As7  1  0.000000  0.000000  0.625252  1.000000
  As  As8  1  0.333333  0.666667  0.291919  1.000000
  As  As9  1  0.333333  0.666667  0.791464  1.000000
  As  As10  1  0.666667  0.333333  0.458130  1.000000
  As  As11  1  0.666667  0.333333  0.958585  1.000000
