# Simple CIF generated by TEM_SIMU_MATLAB
_symmetry_space_group_name_H-M    'P 1'
_cell_length_a    7.026683
_cell_length_b    7.026683
_cell_length_c    7.026683
_cell_angle_alpha    33.572010
_cell_angle_beta    33.572010
_cell_angle_gamma    33.572017
_symmetry_Int_Tables_number    1
_cell_volume    94.499730
loop_
 _symmetry_equiv_pos_site_id
 _symmetry_equiv_pos_as_xyz
  1  'x, y, z'
loop_
 _atom_site_type_symbol
 _atom_site_label
 _atom_site_symmetry_multiplicity
 _atom_site_fract_x
 _atom_site_fract_y
 _atom_site_fract_z
 _atom_site_occupancy
  Al  Al0  1  0.999885  0.999885  0.999885  1.000000
  Ga  Ga1  1  0.500067  0.500067  0.500067  1.000000
  As  As2  1  0.124797  0.124797  0.124797  1.000000
  As  As3  1  0.625252  0.625252  0.625252  1.000000
